 # Electric dipole moments for BaO polyhedra computed with atomsk
 CRYSTAL
 PRIMVEC
     56.00000000        0.00000000        0.00000000
      0.00000000        4.00000000        0.00000000
      0.00000000        0.00000000        4.00000000
 CONVVEC
     56.00000000        0.00000000        0.00000000
      0.00000000        4.00000000        0.00000000
      0.00000000        0.00000000        4.00000000
 PRIMCOORD
       12 1
Ba      0.00000000      0.00000000      0.04235104     -0.00000000      0.00000000     -0.11651249
Ba      3.99999992      0.00000000      0.04235104      0.00000024      0.00000000     -0.11651249
Ba     35.99999984      0.00000000      3.95764900      0.00000024      0.00000000      0.11651242
Ba      7.99999984      0.00000000      0.04235104      0.00000024      0.00000000     -0.11651249
Ba     39.99999976      0.00000000      3.95764900      0.00000024      0.00000000      0.11651242
Ba     16.00000024      0.00000000      0.04235104     -0.00000024      0.00000000     -0.11651249
Ba     11.99999976      0.00000000      0.04235104      0.00000024      0.00000000     -0.11651249
Ba     44.00000024      0.00000000      3.95764900     -0.00000024      0.00000000      0.11651242
Ba     48.00000016      0.00000000      3.99999896     -0.00000024      0.00000000      0.00000053
Ba     20.00000016      0.00000000      0.00000100     -0.00000024      0.00000000     -0.00000049
Ba     28.00000000      0.00000000      3.95764900      0.00000000      0.00000000      0.11651242
Ba     31.99999992      0.00000000      3.95764900      0.00000024      0.00000000      0.11651242
