 # Electric dipole moments for TiO polyhedra computed with atomsk
 CRYSTAL
 PRIMVEC
     56.00000000        0.00000000        0.00000000
      0.00000000        4.00000000        0.00000000
      0.00000000        0.00000000        4.00000000
 CONVVEC
     56.00000000        0.00000000        0.00000000
      0.00000000        4.00000000        0.00000000
      0.00000000        0.00000000        4.00000000
 PRIMCOORD
       14 1
Ti      2.00000024      2.00000000      2.10424648      0.00000013      0.00000000      0.20815470
Ti      6.00000016      2.00000000      2.10424648      0.00000013      0.00000000      0.20815470
Ti     10.00000008      2.00000000      2.10424648      0.00000013      0.00000000      0.20815470
Ti     14.00000000      2.00000000      2.10424648     -0.00000000      0.00000000      0.20815470
Ti     49.99999984      2.00000000      2.10424648     -0.00000013      0.00000000      0.20039738
Ti     53.99999976      2.00000000      2.10424648     -0.00000013      0.00000000      0.20815470
Ti     17.99999992      2.00000000      2.10424648     -0.00000013      0.00000000      0.20039654
Ti     21.99999984      2.00000000      1.89575352     -0.00000013      0.00000000     -0.20039737
Ti     25.99999976      2.00000000      1.89575352     -0.00000013      0.00000000     -0.20815468
Ti     30.00000024      2.00000000      1.89575352      0.00000013      0.00000000     -0.20815468
Ti     34.00000016      2.00000000      1.89575352      0.00000013      0.00000000     -0.20815468
Ti     38.00000008      2.00000000      1.89575352      0.00000013      0.00000000     -0.20815468
Ti     42.00000000      2.00000000      1.89575352     -0.00000000      0.00000000     -0.20815468
Ti     45.99999992      2.00000000      1.89575352     -0.00000013      0.00000000     -0.20039652
