 # Electric dipole moments computed with atomsk
 CRYSTAL
 PRIMVEC
     56.00000000        0.00000000        0.00000000
      0.00000000        4.00000000        0.00000000
      0.00000000        0.00000000        4.00000000
 CONVVEC
     56.00000000        0.00000000        0.00000000
      0.00000000        4.00000000        0.00000000
      0.00000000        0.00000000        4.00000000
 PRIMCOORD
       70 1
56        0.00000000        0.00000000        0.04235104  -0.22204460E-14    0.00000000E+00   -0.11651249E+00
56        3.99999992        0.00000000        0.04235104  0.23843170E-06    0.00000000E+00   -0.11651249E+00
56        7.99999984        0.00000000        0.04235104  0.23843173E-06    0.00000000E+00   -0.11651249E+00
56       11.99999976        0.00000000        0.04235104  0.23843173E-06    0.00000000E+00   -0.11651249E+00
56       16.00000024        0.00000000        0.04235104  -0.23843176E-06    0.00000000E+00   -0.11651249E+00
56       20.00000016        0.00000000        0.00000100  -0.23843164E-06    0.00000000E+00   -0.49389430E-06
56       28.00000000        0.00000000        3.95764900  0.12878587E-13    0.00000000E+00    0.11651242E+00
56       31.99999992        0.00000000        3.95764900  0.23843158E-06    0.00000000E+00    0.11651242E+00
56       35.99999984        0.00000000        3.95764900  0.23843162E-06    0.00000000E+00    0.11651242E+00
56       39.99999976        0.00000000        3.95764900  0.23843162E-06    0.00000000E+00    0.11651242E+00
56       44.00000024        0.00000000        3.95764900  -0.23843165E-06    0.00000000E+00    0.11651242E+00
56       48.00000016        0.00000000        3.99999896  -0.23843174E-06    0.00000000E+00    0.52795596E-06
22        2.00000024        2.00000000        2.10424648  0.12688575E-06    0.00000000E+00    0.20815470E+00
22        6.00000016        2.00000000        2.10424648  0.12688575E-06    0.00000000E+00    0.20815470E+00
22       10.00000008        2.00000000        2.10424648  0.12688575E-06    0.00000000E+00    0.20815470E+00
22       14.00000000        2.00000000        2.10424648  -0.19539925E-13    0.00000000E+00    0.20815470E+00
22       17.99999992        2.00000000        2.10424648  -0.12688575E-06    0.00000000E+00    0.20039654E+00
22       21.99999984        2.00000000        1.89575352  -0.12688575E-06    0.00000000E+00   -0.20039737E+00
22       25.99999976        2.00000000        1.89575352  -0.12688575E-06    0.00000000E+00   -0.20815468E+00
22       30.00000024        2.00000000        1.89575352  0.12688575E-06    0.00000000E+00   -0.20815468E+00
22       34.00000016        2.00000000        1.89575352  0.12688571E-06    0.00000000E+00   -0.20815468E+00
22       38.00000008        2.00000000        1.89575352  0.12688570E-06    0.00000000E+00   -0.20815468E+00
22       42.00000000        2.00000000        1.89575352  -0.72386541E-13    0.00000000E+00   -0.20815468E+00
22       45.99999992        2.00000000        1.89575352  -0.12688577E-06    0.00000000E+00   -0.20039652E+00
22       49.99999984        2.00000000        2.10424648  -0.12688578E-06    0.00000000E+00    0.20039738E+00
22       53.99999976        2.00000000        2.10424648  -0.12688570E-06    0.00000000E+00    0.20815470E+00
8        0.00000000        2.00000000        1.96576184  0.00000000E+00    0.00000000E+00    0.00000000E+00
8        2.00000024        0.00000000        1.96576184  0.00000000E+00    0.00000000E+00    0.00000000E+00
8        2.00000024        2.00000000        3.92187880  0.00000000E+00    0.00000000E+00    0.00000000E+00
8        3.99999992        2.00000000        1.96576184  0.00000000E+00    0.00000000E+00    0.00000000E+00
8        6.00000016        0.00000000        1.96576184  0.00000000E+00    0.00000000E+00    0.00000000E+00
8        6.00000016        2.00000000        3.92187880  0.00000000E+00    0.00000000E+00    0.00000000E+00
8        7.99999984        2.00000000        1.96576184  0.00000000E+00    0.00000000E+00    0.00000000E+00
8       10.00000008        0.00000000        1.96576184  0.00000000E+00    0.00000000E+00    0.00000000E+00
8       10.00000008        2.00000000        3.92187880  0.00000000E+00    0.00000000E+00    0.00000000E+00
8       11.99999976        2.00000000        1.96576184  0.00000000E+00    0.00000000E+00    0.00000000E+00
8       14.00000000        0.00000000        1.96576184  0.00000000E+00    0.00000000E+00    0.00000000E+00
8       14.00000000        2.00000000        3.92187880  0.00000000E+00    0.00000000E+00    0.00000000E+00
8       16.00000024        2.00000000        1.96576184  0.00000000E+00    0.00000000E+00    0.00000000E+00
8       17.99999992        0.00000000        1.96576184  0.00000000E+00    0.00000000E+00    0.00000000E+00
8       17.99999992        2.00000000        3.92187880  0.00000000E+00    0.00000000E+00    0.00000000E+00
8       20.00000016        2.00000000        2.00000184  0.00000000E+00    0.00000000E+00    0.00000000E+00
8       21.99999984        0.00000000        2.03423812  0.00000000E+00    0.00000000E+00    0.00000000E+00
8       21.99999984        2.00000000        0.07812124  0.00000000E+00    0.00000000E+00    0.00000000E+00
8       24.00000008        2.00000000        2.03423812  0.00000000E+00    0.00000000E+00    0.00000000E+00
8       25.99999976        0.00000000        2.03423812  0.00000000E+00    0.00000000E+00    0.00000000E+00
8       25.99999976        2.00000000        0.07812124  0.00000000E+00    0.00000000E+00    0.00000000E+00
8       28.00000000        2.00000000        2.03423812  0.00000000E+00    0.00000000E+00    0.00000000E+00
8       30.00000024        0.00000000        2.03423812  0.00000000E+00    0.00000000E+00    0.00000000E+00
8       30.00000024        2.00000000        0.07812124  0.00000000E+00    0.00000000E+00    0.00000000E+00
8       31.99999992        2.00000000        2.03423812  0.00000000E+00    0.00000000E+00    0.00000000E+00
8       34.00000016        0.00000000        2.03423812  0.00000000E+00    0.00000000E+00    0.00000000E+00
8       34.00000016        2.00000000        0.07812124  0.00000000E+00    0.00000000E+00    0.00000000E+00
8       35.99999984        2.00000000        2.03423812  0.00000000E+00    0.00000000E+00    0.00000000E+00
8       38.00000008        0.00000000        2.03423812  0.00000000E+00    0.00000000E+00    0.00000000E+00
8       38.00000008        2.00000000        0.07812124  0.00000000E+00    0.00000000E+00    0.00000000E+00
8       39.99999976        2.00000000        2.03423812  0.00000000E+00    0.00000000E+00    0.00000000E+00
8       42.00000000        0.00000000        2.03423812  0.00000000E+00    0.00000000E+00    0.00000000E+00
8       42.00000000        2.00000000        0.07812124  0.00000000E+00    0.00000000E+00    0.00000000E+00
8       44.00000024        2.00000000        2.03423812  0.00000000E+00    0.00000000E+00    0.00000000E+00
8       45.99999992        0.00000000        2.03423812  0.00000000E+00    0.00000000E+00    0.00000000E+00
8       45.99999992        2.00000000        0.07812124  0.00000000E+00    0.00000000E+00    0.00000000E+00
8       48.00000016        2.00000000        1.99999812  0.00000000E+00    0.00000000E+00    0.00000000E+00
8       49.99999984        0.00000000        1.96576184  0.00000000E+00    0.00000000E+00    0.00000000E+00
8       49.99999984        2.00000000        3.92187880  0.00000000E+00    0.00000000E+00    0.00000000E+00
8       52.00000008        2.00000000        1.96576184  0.00000000E+00    0.00000000E+00    0.00000000E+00
8       53.99999976        0.00000000        1.96576184  0.00000000E+00    0.00000000E+00    0.00000000E+00
8       53.99999976        2.00000000        3.92187880  0.00000000E+00    0.00000000E+00    0.00000000E+00
38       24.00000008        0.00000000        3.95764900  0.81555685E-07    0.00000000E+00   -0.39853096E-01
38       52.00000008        0.00000000        0.04235104  0.81555633E-07    0.00000000E+00    0.39853120E-01
