 # Electric dipole moments for SrO polyhedra computed with atomsk
 CRYSTAL
 PRIMVEC
     56.00000000        0.00000000        0.00000000
      0.00000000        4.00000000        0.00000000
      0.00000000        0.00000000        4.00000000
 CONVVEC
     56.00000000        0.00000000        0.00000000
      0.00000000        4.00000000        0.00000000
      0.00000000        0.00000000        4.00000000
 PRIMCOORD
        2 1
Sr     24.00000008      0.00000000      3.95764900      0.00000008      0.00000000     -0.03985310
Sr     52.00000008      0.00000000      0.04235104      0.00000008      0.00000000      0.03985312
